 
 ****************************
 *** Specfem3D MPI Mesher ***
 ****************************
 
 Version: 7.0.2
 
 
 There are  24  MPI processes
 Processes are numbered from 0 to  23
 
 There are  256  elements along xi in each chunk
 There are  256  elements along eta in each chunk
 
 There are  2  slices along xi in each chunk
 There are  2  slices along eta in each chunk
 There is a total of  4  slices in each chunk
 There are  6  chunks in the global mesh
 There is a total of  24  slices in the global mesh
 
 NGLLX =  5
 NGLLY =  5
 NGLLZ =  5
 
 Shape functions defined by NGNOD =  27  control nodes
 Surface shape functions defined by NGNOD2D =  9  control nodes
 
 model: 1D_transversely_isotropic_prem
   incorporating the oceans using equivalent load
   incorporating ellipticity
   incorporating surface topography
   incorporating self-gravitation (Cowling approximation)
   incorporating rotation
   incorporating attenuation using  3  standard linear solids
 
   no 3-D lateral variations
   no heterogeneities in the mantle
   no crustal variations
   using unmodified 1D crustal model with two layers
   incorporating anisotropy
   no inner-core anisotropy
   no general mantle anisotropy
 
 Reference radius of the Earth used is  6371.  km
 
 Central cube is at a radius of  965.  km
 creating global slice addressing
 
 Spatial distribution of the slices
                        3    1
                        2    0
  
    11    9       7    5      19   17
    10    8       6    4      18   16
  
                       23   21
                       22   20
  
                       15   13
                       14   12
  
 
 incorporating topography
   topography/bathymetry: min/max =  -7747,  5507
 
 additional mesh optimizations
 
 moho:
   no element stretching for 3-D moho surface
 
 internal topography 410/660:
   no element stretching for 3-D internal surfaces
 
 
 Radial Meshing parameters:
   CHUNK WIDTH XI/ETA = 90. / 90.
   NEX XI/ETA = 256 / 256
 
   NER_CRUST:                2
   NER_80_MOHO:              1
   NER_220_80:               2
   NER_400_220:              3
   NER_600_400:              3
   NER_670_600:              1
   NER_771_670:              1
   NER_TOPDDOUBLEPRIME_771:  22
   NER_CMB_TOPDDOUBLEPRIME:  2
   NER_OUTER_CORE:           24
   NER_TOP_CENTRAL_CUBE_ICB: 3
   SUPPRESS_CRUSTAL_MESH:    F
 
   R_CENTRAL_CUBE =  965.  km
 
 Mesh resolution:
   DT =  0.19
   Minimum period =  17.  (s)
 
   MIN_ATTENUATION_PERIOD =  17
   MAX_ATTENUATION_PERIOD =  975
 
 
 *******************************************
 creating mesh in region  1
 this region is the crust and mantle
 *******************************************
 
 
 first pass
 
   ...allocating arrays 
 
   ...setting up layers 
 
   ...creating mesh elements 
   creating layer  1 out of  11
      9.1%    current clock (NOT elapsed) time is: 09h 10min 46sec
   creating layer  2 out of  11
     18.2%    current clock (NOT elapsed) time is: 09h 10min 47sec
   creating layer  3 out of  11
     27.3%    current clock (NOT elapsed) time is: 09h 10min 47sec
   creating layer  4 out of  11
     36.4%    current clock (NOT elapsed) time is: 09h 10min 48sec
   creating layer  5 out of  11
     45.5%    current clock (NOT elapsed) time is: 09h 10min 51sec
   creating layer  6 out of  11
     54.5%    current clock (NOT elapsed) time is: 09h 10min 51sec
   creating layer  7 out of  11
     63.6%    current clock (NOT elapsed) time is: 09h 10min 52sec
   creating layer  8 out of  11
     72.7%    current clock (NOT elapsed) time is: 09h 10min 53sec
   creating layer  9 out of  11
     81.8%    current clock (NOT elapsed) time is: 09h 10min 53sec
   creating layer  10 out of  11
     90.9%    current clock (NOT elapsed) time is: 09h 10min 55sec
   creating layer  11 out of  11
    100.0%    current clock (NOT elapsed) time is: 09h 10min 56sec
 
 
   ...creating global addressing
 
   ...creating MPI buffers
 
 second pass
 
   ...allocating arrays 
 
   ...setting up layers 
 
   ...creating mesh elements 
   creating layer  1 out of  11
      9.1%    current clock (NOT elapsed) time is: 09h 11min 52sec
   creating layer  2 out of  11
     18.2%    current clock (NOT elapsed) time is: 09h 11min 55sec
   creating layer  3 out of  11
     27.3%    current clock (NOT elapsed) time is: 09h 11min 56sec
   creating layer  4 out of  11
     36.4%    current clock (NOT elapsed) time is: 09h 12min 04sec
   creating layer  5 out of  11
     45.5%    current clock (NOT elapsed) time is: 09h 12min 22sec
   creating layer  6 out of  11
     54.5%    current clock (NOT elapsed) time is: 09h 12min 24sec
   creating layer  7 out of  11
     63.6%    current clock (NOT elapsed) time is: 09h 12min 26sec
   creating layer  8 out of  11
     72.7%    current clock (NOT elapsed) time is: 09h 12min 31sec
   creating layer  9 out of  11
     81.8%    current clock (NOT elapsed) time is: 09h 12min 37sec
   creating layer  10 out of  11
     90.9%    current clock (NOT elapsed) time is: 09h 12min 44sec
   creating layer  11 out of  11
    100.0%    current clock (NOT elapsed) time is: 09h 12min 51sec
 
 
   ...fills global mesh points 
 
   ...checking mesh resolution and time step
 
 ----------------------------------
   Verification of mesh parameters:
 ----------------------------------
   Region is crust/mantle
 
   Max element edge size =  134.506851  (km)
   Min element edge size =  9.07031155  (km)
   Max/min ratio =  14.8293533
 
   Max Jacobian eigenvalue ratio =  0.999587536
   Min Jacobian eigenvalue ratio =  0.130274296
 
   Minimum period resolved =  20.2632351  (s)
   Minimum period resolved (empirical) =  17.  (s)
   Maximum suggested time step =  0.125  (s)
 
   for DT :  0.189999998  (s)
   Max stability for wave velocities =  0.824926972
 ----------------------------------
 
 
   ...precomputing Jacobian
 
   ...creating chunk buffers
 
 ----- creating chunk buffers -----
 
 There are  2  slices along xi in each chunk
 There are  2  slices along eta in each chunk
 There is a total of  4  slices in each chunk
 There are  6  chunks
 There is a total of  24  slices in all the chunks
 
 There is a total of  24  messages to assemble faces between chunks
 
 Generating message  1  for faces out of  24
 Generating message  2  for faces out of  24
 Generating message  3  for faces out of  24
 Generating message  4  for faces out of  24
 Generating message  5  for faces out of  24
 Generating message  6  for faces out of  24
 Generating message  7  for faces out of  24
 Generating message  8  for faces out of  24
 Generating message  9  for faces out of  24
 Generating message  10  for faces out of  24
 Generating message  11  for faces out of  24
 Generating message  12  for faces out of  24
 Generating message  13  for faces out of  24
 Generating message  14  for faces out of  24
 Generating message  15  for faces out of  24
 Generating message  16  for faces out of  24
 Generating message  17  for faces out of  24
 Generating message  18  for faces out of  24
 Generating message  19  for faces out of  24
 Generating message  20  for faces out of  24
 Generating message  21  for faces out of  24
 Generating message  22  for faces out of  24
 Generating message  23  for faces out of  24
 Generating message  24  for faces out of  24
 
 all the messages for chunk faces have the right size
 
 Generating message  1  for corners out of  8
 Generating message  2  for corners out of  8
 Generating message  3  for corners out of  8
 Generating message  4  for corners out of  8
 Generating message  5  for corners out of  8
 Generating message  6  for corners out of  8
 Generating message  7  for corners out of  8
 Generating message  8  for corners out of  8
 
   ...preparing MPI interfaces
 
 crust/mantle region:
   #max of points in MPI buffers along xi npoin2D_xi =  36309
   #max of array elements transferred npoin2D_xi*NDIM =  108927
 
   #max of points in MPI buffers along eta npoin2D_eta =  36309
   #max of array elements transferred npoin2D_eta*NDIM =  108927
 
 crust mantle MPI:
   maximum interfaces: 7
   MPI addressing maximum interfaces: 7
   MPI addressing : all interfaces okay
 
   total MPI interface points :  3496392
   unique MPI interface points:  3471360
   maximum valence            :  3
   total unique MPI interface points: 3471360
 
 
   ...element inner/outer separation 
 
 for overlapping of communications with calculations:
 
 percentage of edge elements in crust/mantle  5.72021484 %
 percentage of volume elements in crust/mantle  94.2797852 %
 
 
   ...element mesh coloring 
   mesh coloring:  F
 
   ...creating mass matrix
     updates mass matrix with ocean load
 
   ...saving binary files
 
    calculated top area:  12.557554539220989
 calculated bottom area:  3.7493340145179479
 
 *******************************************
 creating mesh in region  2
 this region is the outer core
 *******************************************
 
 
 first pass
 
   ...allocating arrays 
 
   ...setting up layers 
 
   ...creating mesh elements 
   creating layer  1 out of  2
     50.0%    current clock (NOT elapsed) time is: 09h 13min 14sec
   creating layer  2 out of  2
    100.0%    current clock (NOT elapsed) time is: 09h 13min 15sec
 
 
   ...creating global addressing
 
   ...creating MPI buffers
 
 second pass
 
   ...allocating arrays 
 
   ...setting up layers 
 
   ...creating mesh elements 
   creating layer  1 out of  2
     50.0%    current clock (NOT elapsed) time is: 09h 13min 19sec
   creating layer  2 out of  2
    100.0%    current clock (NOT elapsed) time is: 09h 13min 24sec
 
 
   ...fills global mesh points 
 
   ...checking mesh resolution and time step
 
 ----------------------------------
   Verification of mesh parameters:
 ----------------------------------
   Region is outer core
 
   Max element edge size =  141.310104  (km)
   Min element edge size =  42.378849  (km)
   Max/min ratio =  3.33444881
 
   Max Jacobian eigenvalue ratio =  0.995238006
   Min Jacobian eigenvalue ratio =  0.181314871
 
   Minimum period resolved =  12.8869724  (s)
   Minimum period resolved (empirical) =  17.  (s)
   Maximum suggested time step =  0.38499999  (s)
 
   for DT :  0.189999998  (s)
   Max stability for wave velocities =  0.268888265
 ----------------------------------
 
 
   ...precomputing Jacobian
 
   ...creating chunk buffers
 
 ----- creating chunk buffers -----
 
 There are  2  slices along xi in each chunk
 There are  2  slices along eta in each chunk
 There is a total of  4  slices in each chunk
 There are  6  chunks
 There is a total of  24  slices in all the chunks
 
 There is a total of  24  messages to assemble faces between chunks
 
 Generating message  1  for faces out of  24
 Generating message  2  for faces out of  24
 Generating message  3  for faces out of  24
 Generating message  4  for faces out of  24
 Generating message  5  for faces out of  24
 Generating message  6  for faces out of  24
 Generating message  7  for faces out of  24
 Generating message  8  for faces out of  24
 Generating message  9  for faces out of  24
 Generating message  10  for faces out of  24
 Generating message  11  for faces out of  24
 Generating message  12  for faces out of  24
 Generating message  13  for faces out of  24
 Generating message  14  for faces out of  24
 Generating message  15  for faces out of  24
 Generating message  16  for faces out of  24
 Generating message  17  for faces out of  24
 Generating message  18  for faces out of  24
 Generating message  19  for faces out of  24
 Generating message  20  for faces out of  24
 Generating message  21  for faces out of  24
 Generating message  22  for faces out of  24
 Generating message  23  for faces out of  24
 Generating message  24  for faces out of  24
 
 all the messages for chunk faces have the right size
 
 Generating message  1  for corners out of  8
 Generating message  2  for corners out of  8
 Generating message  3  for corners out of  8
 Generating message  4  for corners out of  8
 Generating message  5  for corners out of  8
 Generating message  6  for corners out of  8
 Generating message  7  for corners out of  8
 Generating message  8  for corners out of  8
 
   ...preparing MPI interfaces
 
 outer core region:
   #max of points in MPI buffers along xi npoin2D_xi =  9409
   #max of array elements transferred npoin2D_xi*NDIM =  28227
 
   #max of points in MPI buffers along eta npoin2D_eta =  9409
   #max of array elements transferred npoin2D_eta*NDIM =  28227
 
 outer core MPI:
   maximum interfaces: 7
   MPI addressing maximum interfaces: 7
   MPI addressing : all interfaces okay
 
   total MPI interface points :  910248
   unique MPI interface points:  893952
   maximum valence            :  3
   total assembled MPI interface points: 893952
 
 
   ...element inner/outer separation 
 percentage of edge elements in outer core  14.947917 %
 percentage of volume elements in outer core  85.0520859 %
 
 
   ...element mesh coloring 
   mesh coloring:  F
 
   ...creating mass matrix
 
   ...saving binary files
 
    calculated top area:  3.749334014517947
 calculated bottom area:  0.46155862412830995
 
 *******************************************
 creating mesh in region  3
 this region is the inner core
 *******************************************
 
 
 first pass
 
   ...allocating arrays 
 
   ...setting up layers 
 
   ...creating mesh elements 
   creating layer  1 out of  1
    100.0%    current clock (NOT elapsed) time is: 09h 13min 25sec
 
   creating central cube
 
   ...creating global addressing
 
   ...creating MPI buffers
 
 second pass
 
   ...allocating arrays 
 
   ...setting up layers 
 
   ...creating mesh elements 
   creating layer  1 out of  1
    100.0%    current clock (NOT elapsed) time is: 09h 13min 27sec
 
   creating central cube
 
   ...fills global mesh points 
 
   ...checking mesh resolution and time step
 
 ----------------------------------
   Verification of mesh parameters:
 ----------------------------------
   Region is inner core
 
   Max element edge size =  172.951309  (km)
   Min element edge size =  34.8110542  (km)
   Max/min ratio =  4.96828699
 
   Max Jacobian eigenvalue ratio =  0.99961412
   Min Jacobian eigenvalue ratio =  0.227796003
 
   Minimum period resolved =  18.926403  (s)
   Minimum period resolved (empirical) =  17.  (s)
   Maximum suggested time step =  0.294999987  (s)
 
   for DT :  0.189999998  (s)
   Max stability for wave velocities =  0.352452844
 ----------------------------------
 
 
   ...precomputing Jacobian
 
   ...creating chunk buffers
 
 ----- creating chunk buffers -----
 
 There are  2  slices along xi in each chunk
 There are  2  slices along eta in each chunk
 There is a total of  4  slices in each chunk
 There are  6  chunks
 There is a total of  24  slices in all the chunks
 
 There is a total of  24  messages to assemble faces between chunks
 
 Generating message  1  for faces out of  24
 Generating message  2  for faces out of  24
 Generating message  3  for faces out of  24
 Generating message  4  for faces out of  24
 Generating message  5  for faces out of  24
 Generating message  6  for faces out of  24
 Generating message  7  for faces out of  24
 Generating message  8  for faces out of  24
 Generating message  9  for faces out of  24
 Generating message  10  for faces out of  24
 Generating message  11  for faces out of  24
 Generating message  12  for faces out of  24
 Generating message  13  for faces out of  24
 Generating message  14  for faces out of  24
 Generating message  15  for faces out of  24
 Generating message  16  for faces out of  24
 Generating message  17  for faces out of  24
 Generating message  18  for faces out of  24
 Generating message  19  for faces out of  24
 Generating message  20  for faces out of  24
 Generating message  21  for faces out of  24
 Generating message  22  for faces out of  24
 Generating message  23  for faces out of  24
 Generating message  24  for faces out of  24
 
 all the messages for chunk faces have the right size
 
 Generating message  1  for corners out of  8
 Generating message  2  for corners out of  8
 Generating message  3  for corners out of  8
 Generating message  4  for corners out of  8
 Generating message  5  for corners out of  8
 Generating message  6  for corners out of  8
 Generating message  7  for corners out of  8
 Generating message  8  for corners out of  8
 
   ...preparing MPI interfaces
 
 inner core region:
   #max of points in MPI buffers along xi npoin2D_xi =  9165
   #max of array elements transferred npoin2D_xi*NDIM =  27495
 
   #max of points in MPI buffers along eta npoin2D_eta =  9165
   #max of array elements transferred npoin2D_eta*NDIM =  27495
 
 
 including central cube
 
 inner core MPI:
 inner core with central cube MPI:
   maximum interfaces: 15
   MPI addressing maximum interfaces: 15
   MPI addressing : all interfaces okay
 
   total MPI interface points :  321256
   unique MPI interface points:  306200
   maximum valence            :  7
   total assembled MPI interface points: 306200
 
 
   ...element inner/outer separation 
 percentage of edge elements in inner core  14.9107141 %
 percentage of volume elements in inner core  85.0892868 %
 
 
   ...element mesh coloring 
   mesh coloring:  F
 
   ...creating mass matrix
 
   ...saving binary files
 
    calculated top area:  0.46155862412830939
 calculated bottom area:  0.21843460432873629
 
 calculated volume:  4.1841085278396584
 
 computed total Earth mass for this density model and mesh: 
     5.971552321E+24  kg
    (should be not too far from 5.974E+24 kg)
 
 average density for this density model and mesh: 
     5519.01416  kg/m3
    (should be not too far from 5514 kg/m3)
 
 position of the center of mass of the Earth for this density model and mesh: 
    x =  1.659983397E-2  km
    y =  -1.644637994E-2  km
    z =  0.14603141  km
    distance to center =  0.147889182  km
 
 Repartition of elements in regions:
 ----------------------------------
 
 total number of elements in each slice:  188160
 
  - crust and mantle:  87.0748291  %
  - outer core:  8.16326523  %
  - inner core:  4.76190472  %
 
 for some mesh statistics, see comments in file OUTPUT_FILES/values_from_mesher.h
 
 Load balancing = 100 % by definition
 
 
 the time step of the solver will be DT =  0.189999998
 
 using single precision for the calculations
 
 smallest and largest possible floating-point numbers are:  1.175494351E-38,  3.402823466E+38
 
 
 Elapsed time for mesh generation and buffer creation in seconds =  190.40491008758545
 Elapsed time for mesh generation and buffer creation in hh:mm:ss =    0 h 03 m 10 s
 
 End of mesh generation
 
