 
 ******************************
 **** Specfem3D MPI Solver ****
 ******************************
 
 Version: 7.0.2
 
 
 There are  24  MPI processes
 Processes are numbered from 0 to  23
 
 There are  256  elements along xi in each chunk
 There are  256  elements along eta in each chunk
 
 There are  2  slices along xi in each chunk
 There are  2  slices along eta in each chunk
 There is a total of  4  slices in each chunk
 There are  6  chunks
 There is a total of  24  slices in all the chunks
 
 NDIM =  3
 
 NGLLX =  5
 NGLLY =  5
 NGLLZ =  5
 
 using single precision for the calculations
 
 smallest and largest possible floating-point numbers are:  1.175494351E-38,  3.402823466E+38
 
 model: 1D_transversely_isotropic_prem
   incorporating the oceans using equivalent load
   incorporating ellipticity
   incorporating surface topography
   incorporating self-gravitation (Cowling approximation)
   incorporating rotation
   incorporating attenuation using  3  standard linear solids
 
   no 3-D lateral variations
   no heterogeneities in the mantle
   no crustal variations
   using unmodified 1D crustal model with two layers
   incorporating transverse isotropy
   no inner-core anisotropy
   no general mantle anisotropy
 
 
 
 GPU_MODE Active.
   runtime :  0
   platform: NVIDIA
   device  : Tesla
 GPU number of devices per node: min = 1
                                 max = 1
 
 mesh databases:
   reading in crust/mantle databases...
   reading in outer core databases...
   reading in inner core databases...
   reading in coupling surface databases...
   reading in addressing...
 Spatial distribution of the slices
                        3    1
                        2    0
  
    11    9       7    5      19   17
    10    8       6    4      18   16
  
                       23   21
                       22   20
  
                       15   13
                       14   12
  
   reading in MPI databases...
   for overlapping of communications with calculations:
 
   percentage of edge elements in crust/mantle  5.72021484 %
   percentage of volume elements in crust/mantle  94.2797852 %
 
   percentage of edge elements in outer core  14.947916 %
   percentage of volume elements in outer core  85.0520859 %
 
   percentage of edge elements in inner core  14.9107151 %
   percentage of volume elements in inner core  85.0892868 %
 
 
 Elapsed time for reading mesh in seconds =  4.1533699
 
 topography:
   topography/bathymetry: min/max =  -7747,  5507
 
 Elapsed time for reading topo/bathy in seconds =  0.354150057
 
 
 sources: 1
 
 ********************
  locating sources
 ********************
 
 
 source #  1
 
   source located in slice  4
                  in element  105120
 
   using moment tensor source: 
     xi coordinate of source in that element:  0.78671059238189478
     eta coordinate of source in that element:  0.28889090535209183
     gamma coordinate of source in that element:  -0.32351055374670928
 
   source time function:
     using (quasi) Heaviside source time function
 
     half duration:  20.  seconds
     time shift:  0.  seconds
 
   magnitude of the source:
        scalar moment M0 =  2.62997300366372514E+28  dyne-cm
     moment magnitude Mw =  8.2466343844251053
 
 
   original (requested) position of the source:
 
         latitude:  -13.82
        longitude:  -67.25
            depth:  647.10000000000002  km
 
   position of the source that will be used:
 
         latitude:  -13.820000000000006
        longitude:  -67.249999999999986
            depth:  647.10000000000127  km
 
   Error in location of the source:  1.59147695E-12  km
 
 maximum error in location of the sources:  1.59147695E-12  km
 
 
 Elapsed time for detection of sources in seconds =  1.01180076599121094E-2
 
 End of source detection - done
 
 
 receivers:
 
 Total number of receivers =  12
 
 
 ********************
  locating receivers
 ********************
 
 reading receiver information...
 
 Stations sorted by epicentral distance:
 Station #     6:                  IU.BBSR    epicentral distance:     45.994934 degrees
 Station #    11:                  IU.PMSA    epicentral distance:     50.942963 degrees
 Station #     8:                   IU.HRV    epicentral distance:     56.187290 degrees
 Station #    12:                   CI.PAS    epicentral distance:     67.962234 degrees
 Station #     2:                  II.BORG    epicentral distance:     85.674034 degrees
 Station #     9:                  IU.KONO    epicentral distance:     95.292908 degrees
 Station #     4:                   II.LVZ    epicentral distance:    107.189293 degrees
 Station #    10:                  IU.MIDW    epicentral distance:    113.986961 degrees
 Station #     3:                   II.GAR    epicentral distance:    135.026947 degrees
 Station #     1:                   II.AAK    epicentral distance:    136.308899 degrees
 Station #     5:                   II.TLY    epicentral distance:    141.529617 degrees
 Station #     7:                   IU.DAV    epicentral distance:    165.716248 degrees
 
 maximum error in location of all the receivers:  1.581622528E-12  km
 
 Elapsed time for receiver detection in seconds =  0.60371994972229004
 
 End of receiver detection - done
 
 
 found a total of  12  receivers in all slices
 this total is okay
 
 source arrays:
   number of sources is  1
   size of source array                 =  1.430511475E-3 MB
                                        =  1.396983862E-6 GB
 
 seismograms:
   seismograms written by all processes
   writing out seismograms at every NTSTEP_BETWEEN_OUTPUT_SEISMOS =  300
   maximum number of local receivers is  2  in slice  1
   size of maximum seismogram array       =  6.866455078E-3 MB
                                          =  6.705522537E-6 GB
 
 
 Total number of samples for seismograms =  300
 
 
 Reference radius of the Earth used is  6371.  km
 
 
 incorporating the oceans using equivalent load
 
 incorporating ellipticity
 
 incorporating surface topography
 
 incorporating self-gravitation (Cowling approximation)
 
 incorporating rotation
 
 incorporating attenuation using  3  standard linear solids
 
 
 
 preparing mass matrices
 preparing constants
 preparing gravity arrays
 preparing attenuation
   attenuation period range min/max:  17 / 975  (s)
   ATTENUATION_1D_WITH_3D_STORAGE  :  T
   ATTENUATION_3D                  :  F
 preparing wavefields
   allocating wavefields
   initializing wavefields
 preparing oceans arrays
   number of global points on oceans =  263169
 preparing fields and constants on GPU devices
 
   minimum memory requested     :  3924.9964218139648 MB per process
 
   loading rotation arrays
   loading non-gravity/gravity arrays
   loading attenuation
   loading strain
   loading MPI interfaces
   loading oceans arrays
   loading crust/mantle region
   loading outer core region
   loading inner core region
   transferring initial wavefield
 
   GPU usage: free  = 1689.625  MB 30 %
              used  = 4011.25  MB 70 %
              total = 5700.875  MB 100 %
 
 preparing optimized arrays
   using force vectorization
   using Deville products
   inverse table of ibool done
   fused array done
   bandwidth test (STREAM TRIAD): 
      memory accesses =  367.269287 MB
      timing  min/max =  4.130411148E-2 s /  4.142403603E-2 s
      timing      avg =  4.134597629E-2 s
      bandwidth       =  8.67463875 GB/s
 
 
 Elapsed time for preparing timerun in seconds =  19.1879482
 
 
 time loop:
 
               scheme:         Newmark
            time step:  0.189999998  s
 number of time steps:  300
 total simulated time:  0.446833342  minutes
 start time          : -30.  seconds
 
 All processes are synchronized before time loop
 
 Starting time iteration loop...
 
 Time step #  5
 Time:  -0.487333328  minutes
 Max norm displacement vector U in solid in all slices for forward prop. (m) =  11084469.
 Max non-dimensional potential Ufluid in fluid in all slices for forward prop. =  1.00192904
 Max of strain, eps_trace_over_3_crust_mantle = 9.093847126E-2
 Max of strain, epsilondev_crust_mantle  = 605.874573
 Elapsed time in seconds =  0.30298686027526855
 Elapsed time in hh:mm:ss =      0 h 00 m 00 s
 Mean elapsed time per time step in seconds =  6.05973720550537082E-2
 Time steps done =  5  out of  300
 Time steps remaining =  295
 Estimated remaining time in seconds =  17.876224756240845
 Estimated remaining time in hh:mm:ss =      0 h 00 m 17 s
 Estimated total run time in seconds =  18.179211616516113
 Estimated total run time in hh:mm:ss =      0 h 00 m 18 s
 We have done  1.66666663 % of that
 The run will finish approximately on (in local time): Wed Dec 19, 2018 09:14
 ************************************************************
 **** BEWARE: the above time estimates are not very reliable
 **** because fewer than 100 iterations have been performed
 ************************************************************
 
 Time step #  300
 Time:  0.446833342  minutes
 Max norm displacement vector U in solid in all slices for forward prop. (m) =  16296229.
 Max non-dimensional potential Ufluid in fluid in all slices for forward prop. =  1.14220107
 Max of strain, eps_trace_over_3_crust_mantle = 0.119829342
 Max of strain, epsilondev_crust_mantle  = 326.589386
 Elapsed time in seconds =  21.191802978515625
 Elapsed time in hh:mm:ss =      0 h 00 m 21 s
 Mean elapsed time per time step in seconds =  7.06393432617187511E-2
 Time steps done =  300  out of  300
 Time steps remaining =  0
 Estimated remaining time in seconds =  0.
 Estimated remaining time in hh:mm:ss =      0 h 00 m 00 s
 Estimated total run time in seconds =  21.191802978515625
 Estimated total run time in hh:mm:ss =      0 h 00 m 21 s
 We have done  100. % of that
 
 
 Total number of time steps written:  300
 
 Writing the seismograms in parallel took  4.04298305511474609E-2  seconds
 
 Time-Loop Complete. Timing info:
 Total elapsed time in seconds =  21.308221817016602
 Total elapsed time in hh:mm:ss =      0 h 00 m 21 s
 finalizing simulation
 
 End of the simulation
 
